
  OWA STORM WATER MANAGEMENT MODEL - VERSION v5.1.14 (OWA 2022-07-31)
  --------------------------------------------------------------

  
  ERROR 211: invalid number 0 at line 126 of [XSECT] section:
  3 CIRCULAR 1 0.75 0 0 0 1
